_benchmark/grid_models/TestGrid/cartella/Load.dss
New "Load.load_003_1" bus1=n_003 phases=3 pf=1 NumCust=1 kV=20 kW=41.2617744 enabled=true
New "Load.load_003_2" bus1=n_003 phases=3 pf=1 NumCust=1 kV=20 kW=41.2617744 enabled=true
New "Load.load_003_3" bus1=n_003 phases=3 pf=1 NumCust=1 kV=20 kW=65.5334064 enabled=true
New "Load.load_004" bus1=n_004 phases=3 pf=1 NumCust=1 kV=20 kW=41.2617744 enabled=true
New "Load.load_005" bus1=n_005 phases=3 pf=1 NumCust=1 kV=20 kW=41.2617744 enabled=true
New "Load.load_006_1" bus1=n_006 phases=3 pf=1 NumCust=1 kV=20 kW=41.2617744 enabled=true
New "Load.load_006_2" bus1=n_006 phases=3 pf=1 NumCust=1 kV=20 kW=41.2617744 enabled=true
New "Load.load_006_3" bus1=n_006 phases=3 pf=1 NumCust=1 kV=20 kW=41.2617744 enabled=true
New "Load.load_008" bus1=n_008 phases=3 pf=1 NumCust=1 kV=20 kW=41.2617744 enabled=true
New "Load.load_009_1" bus1=n_009 phases=3 pf=1 NumCust=1 kV=20 kW=41.2617744 enabled=true
New "Load.load_009_2" bus1=n_009 phases=3 pf=1 NumCust=1 kV=20 kW=41.2617744 enabled=true
New "Load.load_010_1" bus1=n_010 phases=3 pf=1 NumCust=1 kV=20 kW=41.2617744 enabled=true
New "Load.load_010_2" bus1=n_010 phases=3 pf=1 NumCust=1 kV=20 kW=4.2475356 enabled=true
New "Load.load_011" bus1=n_011 phases=3 pf=1 NumCust=1 kV=20 kW=41.2617744 enabled=true
New "Load.load_012" bus1=n_012 phases=3 pf=1 NumCust=1 kV=20 kW=41.2617744 enabled=true
New "Load.load_013_1" bus1=n_013 phases=3 pf=1 NumCust=1 kV=20 kW=41.2617744 enabled=true
New "Load.load_013_2" bus1=n_013 phases=3 pf=1 NumCust=1 kV=20 kW=41.2617744 enabled=true
New "Load.load_013_3" bus1=n_013 phases=3 pf=1 NumCust=1 kV=20 kW=41.2617744 enabled=true
New "Load.load_014_1" bus1=n_014 phases=3 pf=1 NumCust=1 kV=20 kW=41.2617744 enabled=true
New "Load.load_014_2" bus1=n_014 phases=3 pf=1 NumCust=1 kV=20 kW=65.5334064 enabled=true
New "Load.load_014_3" bus1=n_014 phases=3 pf=1 NumCust=1 kV=20 kW=65.5334064 enabled=true
New "Load.load_015_1" bus1=n_015 phases=3 pf=1 NumCust=1 kV=20 kW=268.2015336 enabled=true
New "Load.load_015_2" bus1=n_015 phases=3 pf=1 NumCust=1 kV=20 kW=65.5334064 enabled=true
New "Load.load_016" bus1=n_016 phases=3 pf=1 NumCust=1 kV=20 kW=41.2617744 enabled=true
New "Load.load_017" bus1=n_017 phases=3 pf=1 NumCust=1 kV=20 kW=65.5334064 enabled=true
New "Load.load_018_1" bus1=n_018 phases=3 pf=1 NumCust=1 kV=20 kW=41.2617744 enabled=true
New "Load.load_018_2" bus1=n_018 phases=3 pf=1 NumCust=1 kV=20 kW=41.2617744 enabled=true
New "Load.load_018_3" bus1=n_018 phases=3 pf=1 NumCust=1 kV=20 kW=41.2617744 enabled=true
New "Load.load_019" bus1=n_019 phases=3 pf=1 NumCust=1 kV=20 kW=41.2617744 enabled=true
New "Load.load_020" bus1=n_020 phases=3 pf=1 NumCust=1 kV=20 kW=41.2617744 enabled=true
New "Load.load_021_1" bus1=n_021 phases=3 pf=1 NumCust=1 kV=20 kW=41.2617744 enabled=true
New "Load.load_021_2" bus1=n_021 phases=3 pf=1 NumCust=1 kV=20 kW=41.2617744 enabled=true
New "Load.load_022" bus1=n_022 phases=3 pf=1 NumCust=1 kV=20 kW=65.5334064 enabled=true
New "Load.load_023" bus1=n_023 phases=3 pf=1 NumCust=1 kV=20 kW=41.2617744 enabled=true
New "Load.load_024_1" bus1=n_024 phases=3 pf=1 NumCust=1 kV=20 kW=41.2617744 enabled=true
New "Load.load_024_2" bus1=n_024 phases=3 pf=1 NumCust=1 kV=20 kW=41.2617744 enabled=true
New "Load.load_025" bus1=n_025 phases=3 pf=1 NumCust=1 kV=20 kW=65.5334064 enabled=true
New "Load.load_026" bus1=n_026 phases=3 pf=1 NumCust=1 kV=20 kW=102.5476452 enabled=true
New "Load.load_027_1" bus1=n_027 phases=3 pf=1 NumCust=1 kV=20 kW=38.2278204 enabled=true
New "Load.load_027_2" bus1=n_027 phases=3 pf=1 NumCust=1 kV=20 kW=624.994524 enabled=true
New "Load.load_027_3" bus1=n_027 phases=3 pf=1 NumCust=1 kV=20 kW=282.7645128 enabled=true
New "Load.load_028" bus1=n_028 phases=3 pf=1 NumCust=1 kV=20 kW=61.2858708 enabled=true
New "Load.load_030" bus1=n_030 phases=3 pf=1 NumCust=1 kV=20 kW=38.2278204 enabled=true
New "Load.load_031" bus1=n_031 phases=3 pf=1 NumCust=1 kV=20 kW=61.2858708 enabled=true
New "Load.load_032_1" bus1=n_032 phases=3 pf=1 NumCust=1 kV=20 kW=38.2278204 enabled=true
New "Load.load_032_2" bus1=n_032 phases=3 pf=1 NumCust=1 kV=20 kW=3.6407448 enabled=true
New "Load.load_032_3" bus1=n_032 phases=3 pf=1 NumCust=1 kV=20 kW=38.2278204 enabled=true
New "Load.load_033_1" bus1=n_033 phases=3 pf=1 NumCust=1 kV=20 kW=38.2278204 enabled=true
New "Load.load_033_2" bus1=n_033 phases=3 pf=1 NumCust=1 kV=20 kW=38.2278204 enabled=true
New "Load.load_034" bus1=n_034 phases=3 pf=1 NumCust=1 kV=20 kW=0.6067908 enabled=true
New "Load.load_035" bus1=n_035 phases=3 pf=1 NumCust=1 kV=20 kW=57.0383352 enabled=true
New "Load.load_036_1" bus1=n_036 phases=3 pf=1 NumCust=1 kV=20 kW=57.0383352 enabled=true
New "Load.load_036_2" bus1=n_036 phases=3 pf=1 NumCust=1 kV=20 kW=57.0383352 enabled=true
New "Load.load_037_1" bus1=n_037 phases=3 pf=1 NumCust=1 kV=20 kW=57.0383352 enabled=true
New "Load.load_037_2" bus1=n_037 phases=3 pf=1 NumCust=1 kV=20 kW=57.0383352 enabled=true
New "Load.load_038" bus1=n_038 phases=3 pf=1 NumCust=1 kV=20 kW=57.0383352 enabled=true
New "Load.load_040_1" bus1=n_040 phases=3 pf=1 NumCust=1 kV=20 kW=141.9890472 enabled=true
New "Load.load_040_2" bus1=n_040 phases=3 pf=1 NumCust=1 kV=20 kW=57.0383352 enabled=true
New "Load.load_040_3" bus1=n_040 phases=3 pf=1 NumCust=1 kV=20 kW=57.0383352 enabled=true
New "Load.load_041_1" bus1=n_041 phases=3 pf=1 NumCust=1 kV=20 kW=57.0383352 enabled=true
New "Load.load_041_2" bus1=n_041 phases=3 pf=1 NumCust=1 kV=20 kW=57.0383352 enabled=true
New "Load.load_042_1" bus1=n_042 phases=3 pf=1 NumCust=1 kV=20 kW=3.6407448 enabled=true
New "Load.load_042_2" bus1=n_042 phases=3 pf=1 NumCust=1 kV=20 kW=57.0383352 enabled=true
New "Load.load_042_3" bus1=n_042 phases=3 pf=1 NumCust=1 kV=20 kW=57.0383352 enabled=true
New "Load.load_043_1" bus1=n_043 phases=3 pf=1 NumCust=1 kV=20 kW=57.0383352 enabled=true
New "Load.load_043_2" bus1=n_043 phases=3 pf=1 NumCust=1 kV=20 kW=57.0383352 enabled=true
New "Load.load_044" bus1=n_044 phases=3 pf=1 NumCust=1 kV=20 kW=57.0383352 enabled=true
New "Load.load_045_1" bus1=n_045 phases=3 pf=1 NumCust=1 kV=20 kW=57.0383352 enabled=true
New "Load.load_045_2" bus1=n_045 phases=3 pf=1 NumCust=1 kV=20 kW=57.0383352 enabled=true
New "Load.load_046" bus1=n_046 phases=3 pf=1 NumCust=1 kV=20 kW=57.0383352 enabled=true
New "Load.load_047" bus1=n_047 phases=3 pf=1 NumCust=1 kV=20 kW=57.0383352 enabled=true
New "Load.load_048_1" bus1=n_048 phases=3 pf=1 NumCust=1 kV=20 kW=57.0383352 enabled=true
New "Load.load_048_2" bus1=n_048 phases=3 pf=1 NumCust=1 kV=20 kW=57.0383352 enabled=true
New "Load.load_048_3" bus1=n_048 phases=3 pf=1 NumCust=1 kV=20 kW=91.01862 enabled=true
New "Load.load_049_1" bus1=n_049 phases=3 pf=1 NumCust=1 kV=20 kW=0.6067908 enabled=true
New "Load.load_049_2" bus1=n_049 phases=3 pf=1 NumCust=1 kV=20 kW=1.8203724 enabled=true
New "Load.load_049_3" bus1=n_049 phases=3 pf=1 NumCust=1 kV=20 kW=57.0383352 enabled=true
New "Load.load_050" bus1=n_050 phases=3 pf=1 NumCust=1 kV=20 kW=57.0383352 enabled=true
New "Load.load_051" bus1=n_051 phases=3 pf=1 NumCust=1 kV=20 kW=57.0383352 enabled=true
New "Load.load_052" bus1=n_052 phases=3 pf=1 NumCust=1 kV=20 kW=57.0383352 enabled=true
New "Load.load_054_1" bus1=n_054 phases=3 pf=1 NumCust=1 kV=20 kW=57.0383352 enabled=true
New "Load.load_054_2" bus1=n_054 phases=3 pf=1 NumCust=1 kV=20 kW=57.0383352 enabled=true
New "Load.load_055_1" bus1=n_055 phases=3 pf=1 NumCust=1 kV=20 kW=57.0383352 enabled=true
New "Load.load_055_2" bus1=n_055 phases=3 pf=1 NumCust=1 kV=20 kW=57.0383352 enabled=true
New "Load.load_076_1" bus1=n_076 phases=3 pf=1 NumCust=1 kV=20 kW=9.101862 enabled=true
New "Load.load_076_2" bus1=n_076 phases=3 pf=1 NumCust=1 kV=20 kW=20.6308872 enabled=true
New "Load.load_077_1" bus1=n_077 phases=3 pf=1 NumCust=1 kV=20 kW=9.101862 enabled=true
New "Load.load_077_2" bus1=n_077 phases=3 pf=1 NumCust=1 kV=20 kW=20.6308872 enabled=true
New "Load.load_078_1" bus1=n_078 phases=3 pf=1 NumCust=1 kV=20 kW=29.7327492 enabled=true
New "Load.load_078_2" bus1=n_078 phases=3 pf=1 NumCust=1 kV=20 kW=93.4457832 enabled=true
New "Load.load_079_1" bus1=n_079 phases=3 pf=1 NumCust=1 kV=20 kW=18.8105148 enabled=true
New "Load.load_079_2" bus1=n_079 phases=3 pf=1 NumCust=1 kV=20 kW=18.8105148 enabled=true
New "Load.load_079_3" bus1=n_079 phases=3 pf=1 NumCust=1 kV=20 kW=29.7327492 enabled=true
New "Load.load_080_1" bus1=n_080 phases=3 pf=1 NumCust=1 kV=20 kW=18.8105148 enabled=true
New "Load.load_080_2" bus1=n_080 phases=3 pf=1 NumCust=1 kV=20 kW=18.8105148 enabled=true
New "Load.load_081_1" bus1=n_081 phases=3 pf=1 NumCust=1 kV=20 kW=18.8105148 enabled=true
New "Load.load_081_2" bus1=n_081 phases=3 pf=1 NumCust=1 kV=20 kW=29.7327492 enabled=true
New "Load.load_083_1" bus1=n_083 phases=3 pf=1 NumCust=1 kV=20 kW=18.8105148 enabled=true
New "Load.load_083_2" bus1=n_083 phases=3 pf=1 NumCust=1 kV=20 kW=18.8105148 enabled=true
New "Load.load_083_3" bus1=n_083 phases=3 pf=1 NumCust=1 kV=20 kW=18.8105148 enabled=true
New "Load.load_084_1" bus1=n_084 phases=3 pf=1 NumCust=1 kV=20 kW=18.8105148 enabled=true
New "Load.load_084_2" bus1=n_084 phases=3 pf=1 NumCust=1 kV=20 kW=18.8105148 enabled=true
New "Load.load_085_1" bus1=n_085 phases=3 pf=1 NumCust=1 kV=20 kW=18.8105148 enabled=true
New "Load.load_085_2" bus1=n_085 phases=3 pf=1 NumCust=1 kV=20 kW=18.8105148 enabled=true
New "Load.load_085_3" bus1=n_085 phases=3 pf=1 NumCust=1 kV=20 kW=18.8105148 enabled=true
New "Load.load_086_1" bus1=n_086 phases=3 pf=1 NumCust=1 kV=20 kW=74.6352684 enabled=true
New "Load.load_086_2" bus1=n_086 phases=3 pf=1 NumCust=1 kV=20 kW=56.4315444 enabled=true
New "Load.load_087_1" bus1=n_087 phases=3 pf=1 NumCust=1 kV=20 kW=18.8105148 enabled=true
New "Load.load_087_2" bus1=n_087 phases=3 pf=1 NumCust=1 kV=20 kW=18.8105148 enabled=true
New "Load.load_087_3" bus1=n_087 phases=3 pf=1 NumCust=1 kV=20 kW=18.8105148 enabled=true
New "Load.load_088" bus1=n_088 phases=3 pf=1 NumCust=1 kV=20 kW=18.8105148 enabled=true
New "Load.load_089" bus1=n_089 phases=3 pf=1 NumCust=1 kV=20 kW=18.8105148 enabled=true
New "Load.load_090" bus1=n_090 phases=3 pf=1 NumCust=1 kV=20 kW=18.8105148 enabled=true
New "Load.load_091" bus1=n_091 phases=3 pf=1 NumCust=1 kV=20 kW=9.101862 enabled=true
New "Load.load_092" bus1=n_092 phases=3 pf=1 NumCust=1 kV=20 kW=18.8105148 enabled=true
New "Load.load_093" bus1=n_093 phases=3 pf=1 NumCust=1 kV=20 kW=18.8105148 enabled=true
New "Load.load_094_1" bus1=n_094 phases=3 pf=1 NumCust=1 kV=20 kW=18.8105148 enabled=true
New "Load.load_094_2" bus1=n_094 phases=3 pf=1 NumCust=1 kV=20 kW=18.8105148 enabled=true
New "Load.load_095" bus1=n_095 phases=3 pf=1 NumCust=1 kV=20 kW=29.7327492 enabled=true
New "Load.load_096" bus1=n_096 phases=3 pf=1 NumCust=1 kV=20 kW=9.101862 enabled=true
New "Load.load_097_1" bus1=n_097 phases=3 pf=1 NumCust=1 kV=20 kW=29.7327492 enabled=true
New "Load.load_097_2" bus1=n_097 phases=3 pf=1 NumCust=1 kV=20 kW=29.7327492 enabled=true
New "Load.load_098_1" bus1=n_098 phases=3 pf=1 NumCust=1 kV=20 kW=18.8105148 enabled=true
New "Load.load_098_2" bus1=n_098 phases=3 pf=1 NumCust=1 kV=20 kW=18.8105148 enabled=true
New "Load.load_098_3" bus1=n_098 phases=3 pf=1 NumCust=1 kV=20 kW=18.8105148 enabled=true
New "Load.load_099_1" bus1=n_099 phases=3 pf=1 NumCust=1 kV=20 kW=18.8105148 enabled=true
New "Load.load_099_2" bus1=n_099 phases=3 pf=1 NumCust=1 kV=20 kW=18.8105148 enabled=true
New "Load.load_099_3" bus1=n_099 phases=3 pf=1 NumCust=1 kV=20 kW=18.8105148 enabled=true
New "Load.load_099_4" bus1=n_099 phases=3 pf=1 NumCust=1 kV=20 kW=29.1259584 enabled=true
New "Load.load_100_1" bus1=n_100 phases=3 pf=1 NumCust=1 kV=20 kW=29.7327492 enabled=true
New "Load.load_100_2" bus1=n_100 phases=3 pf=1 NumCust=1 kV=20 kW=46.7228916 enabled=true
New "Load.load_101_1" bus1=n_101 phases=3 pf=1 NumCust=1 kV=20 kW=18.8105148 enabled=true
New "Load.load_101_2" bus1=n_101 phases=3 pf=1 NumCust=1 kV=20 kW=29.7327492 enabled=true
New "Load.load_102_1" bus1=n_102 phases=3 pf=1 NumCust=1 kV=20 kW=29.7327492 enabled=true
New "Load.load_102_2" bus1=n_102 phases=3 pf=1 NumCust=1 kV=20 kW=46.7228916 enabled=true
New "Load.load_103_1" bus1=n_103 phases=3 pf=1 NumCust=1 kV=20 kW=18.8105148 enabled=true
New "Load.load_103_2" bus1=n_103 phases=3 pf=1 NumCust=1 kV=20 kW=18.8105148 enabled=true
